Circuit: *** SPICE deck for cell esquematico{sch} from library cmos_inv

Ignoring BSIM parameter XL
Ignoring BSIM parameter XW
Ignoring BSIM parameter XL
Ignoring BSIM parameter XW
Warning: Pd = 0 is less than W.
Warning: Ps = 0 is less than W.
Warning: Pd = 0 is less than W.
Warning: Ps = 0 is less than W.
Direct Newton iteration for .op point succeeded.

Date: Tue Apr 02 23:08:39 2019
Total elapsed time: 0.136 seconds.

tnom = 27
temp = 27
method = modified trap
totiter = 3016
traniter = 3009
tranpoints = 1415
accept = 1338
rejected = 77
matrix size = 5
fillins = 0
solver = Normal
Matrix Compiler1: 204 bytes object code size  0.2/0.2/[0.1]
Matrix Compiler2: 311 bytes object code size  0.1/0.3/[0.1]

